.. meta::c12fc315fcf65cf87b86f29c4178a59870c530ed63cd265f09bb04d5abe0df99293e90155019dc066d887b43eb7672020ea0a23be9934bc4fd63e389be7052f4

:orphan:

.. title:: Kynema API: kynema_fmb::util::AeroDynInflowLibrary Class Reference

AeroDynInflowLibrary Class Reference
====================================

.. container:: doxygen-content

   
   .. raw:: html
     :file: classkynema__fmb_1_1util_1_1AeroDynInflowLibrary.html
