.. meta::612d25ee066850432d88f67457e4f0f19f7e7d20dc490e5a48f7b031ff63d1ddaebe2cb5c1a57127752988cbb4a1060c557dd3173c149898af811a55f057fc3d

:orphan:

.. title:: Kynema API: kynema::util::AeroDynInflowLibrary Class Reference

AeroDynInflowLibrary Class Reference
====================================

.. container:: doxygen-content

   
   .. raw:: html
     :file: classkynema_1_1util_1_1AeroDynInflowLibrary.html
