.. meta::b8aef88df602b7003e42a64e0c7e77d63f9f5362ec5f80a7e0871ae5ae0d37326ce855a83a7e01917d2f376f8ed2c24d17f5c9ff87df2494ff0b94e79ceb3e4d

:orphan:

.. title:: Kynema API: Member List

Member List
===========

.. container:: doxygen-content

   
   .. raw:: html
     :file: classkynema_1_1util_1_1AeroDynInflowLibrary-members.html
