.. meta::3cf12de3befded4f9aa55f986e8f10457ae9bf4b8b89666037302e00611e9e866433f4d7fb016364843ffdb4a42e843d7f87b9d4ebfc4de9da4e29e2ba6bf856

:orphan:

.. title:: Kynema API: Member List

Member List
===========

.. container:: doxygen-content

   
   .. raw:: html
     :file: classkynema__fmb_1_1util_1_1AeroDynInflowLibrary-members.html
